[TITLE]
;;Project Title/Notes

[OPTIONS]
;;Option             Value
FLOW_UNITS           LPS
INFILTRATION         HORTON
FLOW_ROUTING         DYNWAVE
LINK_OFFSETS         DEPTH
MIN_SLOPE            0
ALLOW_PONDING        NO
SKIP_STEADY_STATE    NO

START_DATE           01/01/2014
START_TIME           00:00:00
REPORT_START_DATE    02/01/2014
REPORT_START_TIME    00:00:00
END_DATE             12/25/2014
END_TIME             06:00:00
SWEEP_START          01/01
SWEEP_END            12/31
DRY_DAYS             0
REPORT_STEP          00:05:00
WET_STEP             00:01:00
DRY_STEP             01:00:00
ROUTING_STEP         0:01:00 
RULE_STEP            00:00:00

INERTIAL_DAMPING     PARTIAL
NORMAL_FLOW_LIMITED  BOTH
FORCE_MAIN_EQUATION  H-W
VARIABLE_STEP        0.75
LENGTHENING_STEP     0
MIN_SURFAREA         12.566
MAX_TRIALS           8
HEAD_TOLERANCE       0.005
SYS_FLOW_TOL         5
LAT_FLOW_TOL         5
MINIMUM_STEP         0.5
THREADS              1

[EVAPORATION]
;;Data Source    Parameters
;;-------------- ----------------
MONTHLY          0.47   0.82   1.82   3.14   4.77   5.13   5.14   4.78   3.15   2.44   1.81   0.46  
DRY_ONLY         NO

[RAINGAGES]
;;Name           Format    Interval SCF      Source    
;;-------------- --------- ------ ------ ----------
RG               VOLUME    0:05     1.0      FILE       "C:\Users\Abullqasim\Documents\3rd semester\Urban water 2\Modeling\Subcatchment\Rain_CO.dat" CO         MM   

[SUBCATCHMENTS]
;;Name           Rain Gage        Outlet           Area     %Imperv  Width    %Slope   CurbLen  SnowPack        
;;-------------- ---------------- ---------------- -------- -------- -------- -------- -------- ----------------
101              RG               06L44            1.94     58.23539182 80.6893361 0.5      0                        
102              RG               06M40            1.22     9.963550278 197.6032284 0.5      0                        
103              RG               06M40            2.88     19.41766443 296.4953608 0.5      0                        
104              RG               06M63            1.66     9.134969203 139.419916 0.5      0                        
105              RG               06R5             1.13     19.82525827 78.68308931 0.5      0                        
106              RG               06R22            2.50     17.91883013 131.0534555 0.5      0                        
107              RG               06R48            1.80     21.82732689 169.2547932 0.5      0                        
108              RG               06M61            1.23     10.58665017 129.1820378 0.5      0                        
109              RG               06L100           1.29     22.35630607 85.68964143 0.5      0                        
110              RG               06Q7             2.93     22.44521833 183.2929375 0.5      0                        
111              RG               06L73            1.37     15.67671943 148.5531522 0.5      0                        
112              RG               06Q7             1.62     16.22697342 128.255  0.5      0                        
113              RG               06L65            0.93     41.13482432 99.85913978 0.5      0                        
114              RG               06L68            0.61     27.23937955 101.5925 0.5      0                        
115              RG               06Q136           0.47     99.98307455 20.73074561 0.5      0                        
116              RG               06L31            0.18     100.1098578 20.29793103 0.5      0                        
117              RG               06M58            0.33     99.99355852 316.5165049 0.5      0                        
118              RG               06L73            0.35     100.0002854 336.9403846 0.5      0                        
119              RG               06L61            0.54     99.99962918 414.8792308 0.5      0                        

[SUBAREAS]
;;Subcatchment   N-Imperv   N-Perv     S-Imperv   S-Perv     PctZero    RouteTo    PctRouted 
;;-------------- ---------- ---------- ---------- ---------- ---------- ---------- ----------
101              0.013      0.15       1.27       2.54       25         OUTLET    
102              0.013      0.15       1.27       2.54       25         OUTLET    
103              0.013      0.15       1.27       2.54       25         OUTLET    
104              0.013      0.15       1.27       2.54       25         OUTLET    
105              0.013      0.15       1.27       2.54       25         OUTLET    
106              0.013      0.15       1.27       2.54       25         OUTLET    
107              0.013      0.15       1.27       2.54       25         OUTLET    
108              0.013      0.15       1.27       2.54       25         OUTLET    
109              0.013      0.15       1.27       2.54       25         OUTLET    
110              0.013      0.15       1.27       2.54       25         OUTLET    
111              0.013      0.15       1.27       2.54       25         OUTLET    
112              0.013      0.15       1.27       2.54       25         OUTLET    
113              0.013      0.15       1.27       2.54       25         OUTLET    
114              0.013      0.15       1.27       2.54       25         OUTLET    
115              0.013      0.15       1.27       2.54       25         OUTLET    
116              0.013      0.15       1.27       2.54       25         OUTLET    
117              0.013      0.15       1.27       2.54       25         OUTLET    
118              0.013      0.15       1.27       2.54       25         OUTLET    
119              0.013      0.15       1.27       2.54       25         OUTLET    

[INFILTRATION]
;;Subcatchment   Param1     Param2     Param3     Param4     Param5    
;;-------------- ---------- ---------- ---------- ---------- ----------
101              12.7       7.62       4          7          0          MODIFIED_HORTON
102              12.7       7.62       4          7          0         
103              12.7       7.62       4          7          0         
104              12.7       7.62       4          7          0         
105              12.7       7.62       4          7          0         
106              12.7       7.62       4          7          0         
107              12.7       7.62       4          7          0         
108              12.7       7.62       4          7          0         
109              12.7       7.62       4          7          0         
110              12.7       7.62       4          7          0         
111              12.7       7.62       4          7          0         
112              12.7       7.62       4          7          0         
113              12.7       7.62       4          7          0         
114              12.7       7.62       4          7          0         
115              12.7       7.62       4          7          0         
116              12.7       7.62       4          7          0         
117              12.7       7.62       4          7          0         
118              12.7       7.62       4          7          0         
119              12.7       7.62       4          7          0         

[JUNCTIONS]
;;Name           Elevation  MaxDepth   InitDepth  SurDepth   Aponded   
;;-------------- ---------- ---------- ---------- ---------- ----------
06L66            149.99     3.92       0          0          0         
06L58            146.51     3.64       0          0          0         
06Q5             152.93     3.2        0          0          0         
06Q187           153.52     3.43       0          0          0         
06L67            152.08     2.97       0          0          0         
06L57            146.74     3.53       0          0          0         
06L59            146.31     3.67       0          0          0         
06L121           146.9      3.45       0          0          0         
06L65            148.16     3.68       0          0          0         
06Q6             153.26     3.21       0          0          0         
06L56            146.94     3.44       0          0          0         
06Q136           159.52     3.08       0          0          0         
06R48            159.77     2.46       0          0          0         
06R6             154.62     2.27       0          0          0         
06R45            162.81     2.65       0          0          0         
06R22            156.48     3.82       0          0          0         
06R25            167.14     3.68       0          0          0         
06R103           166.95     3.83       0          0          0         
06R5             153.97     3.12       0          0          0         
06R40            166.81     3.51       0          0          0         
06R4             153.36     3.4        0          0          0         
06R3             152.77     3.22       0          0          0         
06R42            166.53     3.15       0          0          0         
06L63            143.9      3.61       0          0          0         
06L70            149.05     3.61       0          0          0         
06L62            145.15     3.54       0          0          0         
06L61            145.54     3.6        0          0          0         
06L74            147.57     3.61       0          0          0         
06Q7             152.46     3.25       0          0          0         
06L64            142.75     3.63       0          0          0         
06L73            148.8      3.53       0          0          0         
06L72            150.01     3.44       0          0          0         
06L69            147.1      3.47       0          0          0         
06M38            137.84     4.18       0          0          0         
06L100           147.36     4.69       0          0          0         
06M60            148.86     2.49       0          0          0         
06L90            140.27     3.69       0          0          0         
06L92            137.39     2.84       0          0          0         
06L91            139.59     3.62       0          0          0         
06M63            144.79     3.43       0          0          0         
06L31            141.32     3.96       0          0          0         
06M54            145.63     3.72       0          0          0         
06R1             151.53     3.04       0          0          0         
06M40            138.62     3.93       0          0          0         
06L51            150.41     2.75       0          0          0         
06M61            150.92     3.01       0          0          0         
06M56            144.47     3.91       0          0          0         
06L95            131.21     3.8        0          0          0         
06M5             132.05     4.04       0          0          0         
06M46            139.13     3.64       0          0          0         
06M64            144.45     2.2        0          0          0         
06M44            138.99     3.87       0          0          0         
06M58            144.16     3.22       0          0          0         
06M42            138.82     3.76       0          0          0         
06M47            139.27     3.31       0          0          0         
06R2             152.16     2.78       0          0          0         
06L71            150.94     4.23       0          0          0         
06L68            151.31     2.45       0          0          0         
06L30            141.19     3.24       0          0          0         
06L32            145.18     3.81       0          0          0         
06Q18            155.83     2.61       0          0          0         
06M55            143.83     2.79       0          0          0         
06R7             155.24     2.27       0          0          0         
06L46            140.49     2.46       0          0          0         
06M57            142.85     4.15       0          0          0         
06L44            137.2      4.25       0          0          0         
06M39            138.29     2.97       0          0          0         
06M41            138.79     3.77       0          0          0         
06L45            138.75     3.81       0          0          0         
06L60            145.95     0          0          0          0         
06L94            131.56     0          0          0          0         

[OUTFALLS]
;;Name           Elevation  Type       Stage Data       Gated    Route To        
;;-------------- ---------- ---------- ---------------- -------- ----------------
06L98            129.72     FREE                        NO                       
06M4             131.58     FREE                        NO                       

[CONDUITS]
;;Name           From Node        To Node          Length     Roughness  InOffset   OutOffset  InitFlow   MaxFlow   
;;-------------- ---------------- ---------------- ---------- ---------- ---------- ---------- ---------- ----------
06Q187-06Q6      06Q187           06Q6             11.3       0.011      0          0          0          0         
06Q5-06L68       06Q5             06L68            35.55      0.011      0          0          0          0         
06L72-06L73      06L72            06L73            50.71      0.011      0          0          0          0         
06Q6-06Q7        06Q6             06Q7             34.99      0.011      0          0          0          0         
06L71-06L72      06L71            06L72            50.54      0.011      0          0          0          0         
06L68-06L66      06L68            06L66            40.96      0.011      0          0          0          0         
06L67-06L68      06L67            06L68            39.89      0.013      0          0          0          0         
06L70-06L71      06L70            06L71            42.93      0.011      0          0          0          0         
06L73-06L74      06L73            06L74            50.23      0.011      0          0          0          0         
06Q7-06L71       06Q7             06L71            49.44      0.011      0          0          0          0         
06L94-06L95      06L94            06L95            28.66      0.011      0          0          0          0         
06L30-06L90      06L30            06L90            28.83      0.011      0          0          0          0         
06L58-06L59      06L58            06L59            40.03      0.011      0          0          0          0         
06L64-06L30      06L64            06L30            45.67      0.011      0          0          0          0         
06L57-06L58      06L57            06L58            39.18      0.011      0          0          0          0         
06L121-06L57     06L121           06L57            32.92      0.011      0          0          0          0         
06L92-06L94      06L92            06L94            134.35     0.011      0          0          0          0         
06L62-06L63      06L62            06L63            45.77      0.011      0          0          0          0         
06L95-06L98      06L95            06L98            40.28      0.011      0          0          0          0         
06L69-06L70      06L69            06L70            42.33      0.011      0          0          0          0         
06L63-06L64      06L63            06L64            44.3       0.011      0          0          0          0         
06L61-06L62      06L61            06L62            43.19      0.011      0          0          0          0         
06L66-06L65      06L66            06L65            42.22      0.011      0          0          0          0         
06L59-06L60      06L59            06L60            43.8       0.011      0          0          0          0         
06L90-06L91      06L90            06L91            12.38      0.011      0          0          0          0         
06L60-06L61      06L60            06L61            44.17      0.011      0          0          0          0         
06L69-06L62      06L69            06L62            42.6       0.011      0          0          0          0         
06L65-06L59      06L65            06L59            42.07      0.011      0          0          0          0         
06L56-06L121     06L56            06L121           7.28       0.011      0          0          0          0         
06L91-06L92      06L91            06L92            45.08      0.011      0          0          0          0         
06L32-06L30      06L32            06L30            84.08      0.011      0          0          0          0         
06M58-06M57      06M58            06M57            34.92      0.011      0          0          0          0         
06R42-06R45      06R42            06R45            69.54      0.011      0          0          0          0         
06L74-06L32      06L74            06L32            50.31      0.011      0          0          0          0         
06L100-06L46     06L100           06L46            119.28     0.011      0          0          0          0         
06R48-06Q18      06R48            06Q18            73.46      0.011      0          0          0          0         
06R45-06R48      06R45            06R48            127.71     0.011      0          0          0          0         
06R6-06R5        06R6             06R5             40.51      0.011      0          0          0          0         
06M56-06M57      06M56            06M57            36.9       0.011      0          0          0          0         
06Q18-06L100     06Q18            06L100           117.53     0.011      0          0          0          0         
06M61-06L51      06M61            06L51            33.33      0.011      0          0          0          0         
06L51-06L100     06L51            06L100           48.6       0.011      0          0          0          0         
06R40-06R42      06R40            06R42            43.01      0.011      0          0          0          0         
06M54-06M55      06M54            06M55            38.76      0.011      0          0          0          0         
06R5-06R4        06R5             06R4             40.41      0.011      0          0          0          0         
06M55-06M63      06M55            06M63            27.64      0.011      0          0          0          0         
06Q136-06Q18     06Q136           06Q18            36.18      0.013      0          0          0          0         
06R2-06R1        06R2             06R1             39.75      0.011      0          0          0          0         
06R1-06M61       06R1             06M61            40.06      0.011      0          0          0          0         
06R4-06R3        06R4             06R3             39.89      0.011      0          0          0          0         
06R3-06R2        06R3             06R2             40.18      0.011      0          0          0          0         
06M60-06M63      06M60            06M63            41.36      0.013      0          0          0          0         
06R103-06R40     06R103           06R40            44.73      0.011      0          0          0          0         
06R22-06R7       06R22            06R7             36         0.011      0          0          0          0         
06R25-06R103     06R25            06R103           43.06      0.011      0          0          0          0         
06R7-06R6        06R7             06R6             17.81      0.011      0          0          0          0         
06L46-06L45      06L46            06L45            34.8       0.011      0          0          0          0         
06M55-06M39      06M55            06M39            119.73     0.011      0          0          0          0         
06M64-06M58      06M64            06M58            61.1       0.013      0          0          0          0         
06L31-06L46      06L31            06L46            23.59      0.011      0          0          0          0         
06M57-06M41      06M57            06M41            99.55      0.011      0          0          0          0         
06L44-06M5       06L44            06M5             172.19     0.011      0          0          0          0         
06M39-06M38      06M39            06M38            48.05      0.011      0          0          0          0         
06M38-06L44      06M38            06L44            21.51      0.011      0          0          0          0         
06M46-06M44      06M46            06M44            47.06      0.011      0          0          0          0         
06L30-06L31      06L30            06L31            5.71       0.011      0          0          0          0         
06M40-06M39      06M40            06M39            34.35      0.011      0          0          0          0         
06M47-06M46      06M47            06M46            22.85      0.013      0          0          0          0         
06M42-06M41      06M42            06M41            6.65       0.011      0          0          0          0         
06M41-06M40      06M41            06M40            33.58      0.011      0          0          0          0         
06M5-06M4        06M5             06M4             16.46      0.011      0          0          0          0         
06M44-06M42      06M44            06M42            39.33      0.011      0          0          0          0         
06L45-06L44      06L45            06L44            30.49      0.011      0          0          0          0         
06M63-06M56      06M63            06M56            9.24       0.011      0          0          0          0         

[XSECTIONS]
;;Link           Shape        Geom1            Geom2      Geom3      Geom4      Barrels    Culvert   
;;-------------- ------------ ---------------- ---------- ---------- ---------- ---------- ----------
06Q187-06Q6      EGG          0.45             0          0          0          1                    
06Q5-06L68       EGG          0.45             0          0          0          1                    
06L72-06L73      EGG          0.45             0          0          0          1                    
06Q6-06Q7        EGG          0.45             0          0          0          1                    
06L71-06L72      EGG          0.45             0          0          0          1                    
06L68-06L66      EGG          0.45             0          0          0          1                    
06L67-06L68      CIRCULAR     0.25             0          0          0          1                    
06L70-06L71      EGG          0.45             0          0          0          1                    
06L73-06L74      EGG          0.45             0          0          0          1                    
06Q7-06L71       EGG          0.45             0          0          0          1                    
06L94-06L95      EGG          0.6              0          0          0          1                    
06L30-06L90      EGG          0.6              0          0          0          1                    
06L58-06L59      EGG          0.45             0          0          0          1                    
06L64-06L30      EGG          0.6              0          0          0          1                    
06L57-06L58      EGG          0.45             0          0          0          1                    
06L121-06L57     EGG          0.45             0          0          0          1                    
06L92-06L94      EGG          0.6              0          0          0          1                    
06L62-06L63      EGG          0.6              0          0          0          1                    
06L95-06L98      EGG          0.6              0          0          0          1                    
06L69-06L70      EGG          0.45             0          0          0          1                    
06L63-06L64      EGG          0.6              0          0          0          1                    
06L61-06L62      EGG          0.525            0          0          0          1                    
06L66-06L65      EGG          0.45             0          0          0          1                    
06L59-06L60      EGG          0.525            0          0          0          1                    
06L90-06L91      EGG          0.6              0          0          0          1                    
06L60-06L61      EGG          0.525            0          0          0          1                    
06L69-06L62      EGG          0.45             0          0          0          1                    
06L65-06L59      EGG          0.45             0          0          0          1                    
06L56-06L121     EGG          0.45             0          0          0          1                    
06L91-06L92      EGG          0.6              0          0          0          1                    
06L32-06L30      EGG          0.45             0          0          0          1                    
06M58-06M57      EGG          0.375            0          0          0          1                    
06R42-06R45      EGG          0.45             0          0          0          1                    
06L74-06L32      EGG          0.45             0          0          0          1                    
06L100-06L46     EGG          1.05             0          0          0          1                    
06R48-06Q18      EGG          0.45             0          0          0          1                    
06R45-06R48      EGG          0.45             0          0          0          1                    
06R6-06R5        EGG          0.6              0          0          0          1                    
06M56-06M57      EGG          0.45             0          0          0          1                    
06Q18-06L100     EGG          0.9              0          0          0          1                    
06M61-06L51      EGG          0.6              0          0          0          1                    
06L51-06L100     EGG          0.6              0          0          0          1                    
06R40-06R42      EGG          0.375            0          0          0          1                    
06M54-06M55      EGG          0.45             0          0          0          1                    
06R5-06R4        EGG          0.6              0          0          0          1                    
06M55-06M63      EGG          0.45             0          0          0          1                    
06Q136-06Q18     CIRCULAR     0.3              0          0          0          1                    
06R2-06R1        EGG          0.6              0          0          0          1                    
06R1-06M61       EGG          0.6              0          0          0          1                    
06R4-06R3        EGG          0.6              0          0          0          1                    
06R3-06R2        EGG          0.6              0          0          0          1                    
06M60-06M63      CIRCULAR     0.25             0          0          0          1                    
06R103-06R40     EGG          0.375            0          0          0          1                    
06R22-06R7       EGG          0.375            0          0          0          1                    
06R25-06R103     EGG          0.375            0          0          0          1                    
06R7-06R6        EGG          0.6              0          0          0          1                    
06L46-06L45      EGG          1.05             0          0          0          1                    
06M55-06M39      EGG          0.45             0          0          0          1                    
06M64-06M58      CIRCULAR     0.3              0          0          0          1                    
06L31-06L46      EGG          0.75             0          0          0          1                    
06M57-06M41      EGG          0.45             0          0          0          1                    
06L44-06M5       EGG          1.05             0          0          0          1                    
06M39-06M38      EGG          0.525            0          0          0          1                    
06M38-06L44      EGG          0.525            0          0          0          1                    
06M46-06M44      EGG          0.525            0          0          0          1                    
06L30-06L31      EGG          0.75             0          0          0          1                    
06M40-06M39      EGG          0.45             0          0          0          1                    
06M47-06M46      CIRCULAR     0.3              0          0          0          1                    
06M42-06M41      EGG          0.45             0          0          0          1                    
06M41-06M40      EGG          0.45             0          0          0          1                    
06M5-06M4        EGG          1.05             0          0          0          1                    
06M44-06M42      EGG          0.525            0          0          0          1                    
06L45-06L44      EGG          1.05             0          0          0          1                    
06M63-06M56      EGG          0.45             0          0          0          1                    

[DWF]
;;Node           Constituent      Baseline   Patterns  